<?xml version="1.0" encoding="UTF-8"?>


<routes xmlns:xsi="http://www.w3.org/2001/XMLSchema-instance" xsi:noNamespaceSchemaLocation="http://sumo.dlr.de/xsd/routes_file.xsd">
    <!-- VTypes -->
    <vType id="DEFAULT_VEHTYPE" vClass="taxi"/>
    <vType id="t_0" vClass="motorcycle"/>
    <vType id="t_1" vClass="moped"/>
    <vType id="t_2" vClass="delivery"/>
    <vType id="t_3" />
    <!-- Vehicles, persons and containers (sorted by depart) -->
    <flow id="f_0" type="DEFAULT_TAXITYPE" begin="0.00" from="80926759#1" to="578543603#1" via="572511732#2" end="3600.00" vehsPerHour="200"/>
    <flow id="f_1" type="DEFAULT_TAXITYPE" begin="0.00" from="714986188#0" to="578543603#1" via="24577486 23133486#1 24577482" end="2700.00" vehsPerHour="150"/>
    <flow id="f_10" begin="0.00" from="28103794#1" to="570616026" via="23133486#1 1375201075 562340247 562340243" end="3600.00" vehsPerHour="200"/>
    <flow id="f_11" begin="0.00" from="80499778#1" to="1278775921" end="3600.00" vehsPerHour="200"/>
    <flow id="f_12" type="DEFAULT_TAXITYPE" begin="0.00" from="28103794#1" to="24583332#1" via="24577483 -391534135" end="3600.00" vehsPerHour="100"/>
    <flow id="f_13" type="DEFAULT_TAXITYPE" begin="0.00" from="714986188#0" to="578543603#1" via="24577486 24577482" end="1800.00" vehsPerHour="100"/>
    <flow id="f_14" type="DEFAULT_TAXITYPE" begin="0.00" from="563679821" to="125453679#0" via="23133486#5 24577487#0" end="2700.00" vehsPerHour="100"/>
    <flow id="f_15" type="DEFAULT_TAXITYPE" begin="0.00" from="24577483" to="578543603#1" via="1375201075" end="3600.00" vehsPerHour="100"/>
    <flow id="f_16" type="t_2" begin="0.00" from="80926759#1" to="596346055#0" end="3600.00" vehsPerHour="50"/>
    <flow id="f_17" type="t_2" begin="0.00" from="28103794#1" to="24583332#1" via="23133486#1 1375201075 23133709#0 24577480 24577488#0" end="3600.00" vehsPerHour="50"/>
    <flow id="f_18" type="t_2" begin="0.00" from="24577487#0" to="125453679#0" end="3600.00" vehsPerHour="50"/>
    <flow id="f_19" type="t_2" begin="0.00" from="E0" to="596346055#0" end="3600.00" vehsPerHour="50"/>
    <flow id="f_2" type="DEFAULT_TAXITYPE" begin="0.00" from="714986188#0" to="24583332#1" via="24577486 23133486#2 23133486#4 24577488#0" end="2700.00" vehsPerHour="200"/>
    <flow id="f_20" type="t_2" begin="0.00" from="24577488#0" to="615556519#0" via="1393463455" end="3600.00" vehsPerHour="50"/>
    <flow id="f_21" type="t_0" begin="0.00" from="23133486#6" to="596346055#0" via="23133486#7" end="3600.00" vehsPerHour="50"/>
    <flow id="f_22" type="t_0" begin="0.00" from="446922590#1" to="596346055#0" end="3600.00" vehsPerHour="50"/>
    <flow id="f_23" type="t_0" begin="0.00" from="24577482" to="578543603#1" end="3600.00" vehsPerHour="50"/>
    <flow id="f_24" type="t_0" begin="0.00" from="80499778#1" to="570616026" end="3600.00" vehsPerHour="50"/>
    <flow id="f_25" type="t_0" begin="0.00" from="570616027" to="23133486#3" via="23133709#0" end="2700.00" vehsPerHour="50"/>
    <flow id="f_26" type="t_0" begin="0.00" from="24577488#0" to="24583332#1" end="3600.00" vehsPerHour="50"/>
    <flow id="f_27" type="t_0" begin="0.00" from="24577487#0" to="80414533#1" end="3600.00" vehsPerHour="50"/>
    <flow id="f_28" type="t_1" begin="0.00" from="80926759#1" to="596346055#0" end="3600.00" vehsPerHour="50"/>
    <flow id="f_29" type="t_1" begin="0.00" from="23133486#1" to="578543603#1" end="3600.00" vehsPerHour="100"/>
    <flow id="f_3" type="DEFAULT_TAXITYPE" begin="0.00" from="563679821" to="125453679#0" via="24577480 23133486#5 24577487#0" end="2700.00" vehsPerHour="200"/>
    <flow id="f_30" type="t_1" begin="0.00" from="-391534135" to="24583332#1" end="3600.00" vehsPerHour="50"/>
    <flow id="f_31" type="t_1" begin="0.00" from="23133486#2" to="125453679#0" end="3600.00" vehsPerHour="50"/>
    <flow id="f_32" type="t_3" begin="0.00" from="23133486#7" to="125453679#0" via="24577487#0" end="2700.00" vehsPerHour="10"/>
    <flow id="f_33" type="t_3" begin="0.00" from="80499778#1" to="1278775921" end="3600.00" vehsPerHour="10"/>
    <flow id="f_4" begin="0.00" from="80499778#1" to="1278775921" end="3600.00" vehsPerHour="200"/>
    <flow id="f_5" begin="0.00" from="24583330" to="80414533#1" end="3600.00" vehsPerHour="200"/>
    <flow id="f_6" begin="0.00" from="24583330" to="125453679#0" end="3600.00" vehsPerHour="200"/>
    <flow id="f_7" begin="0.00" from="563679821" to="24583332#1" via="24577488#0" end="3600.00" vehsPerHour="200"/>
    <flow id="f_8" begin="0.00" from="28103794#1" to="125453679#0" via="24577483 23133486#1 23133486#5" end="1800.00" vehsPerHour="200"/>
    <flow id="f_9" begin="0.00" from="563679821" to="596346055#0" via="23133486#6 E0" end="3600.00" vehsPerHour="200"/>
</routes>
