<?xml version="1.0" encoding="UTF-8"?>



<net version="1.16" junctionCornerDetail="5" limitTurnSpeed="5.50" xmlns:xsi="http://www.w3.org/2001/XMLSchema-instance" xsi:noNamespaceSchemaLocation="http://sumo.dlr.de/xsd/net_file.xsd">

    <location netOffset="-715788.43,-3168613.79" convBoundary="0.00,0.00,1858.91,1710.15" origBoundary="77.207316,28.626378,77.226485,28.641887" projParameter="+proj=utm +zone=43 +ellps=WGS84 +datum=WGS84 +units=m +no_defs"/>

    <type id="highway.secondary" priority="11" numLanes="1" speed="27.78" disallow="tram rail_urban rail rail_electric rail_fast ship" oneway="0"/>
    <type id="highway.secondary_link" priority="6" numLanes="1" speed="22.22" disallow="tram rail_urban rail rail_electric rail_fast ship" oneway="0"/>
    <type id="highway.tertiary" priority="10" numLanes="1" speed="22.22" disallow="tram rail_urban rail rail_electric rail_fast ship" oneway="0"/>
    <type id="highway.tertiary_link" priority="5" numLanes="1" speed="22.22" disallow="tram rail_urban rail rail_electric rail_fast ship" oneway="0"/>

    <edge id=":11638815527_0" function="internal">
        <lane id=":11638815527_0_0" index="0" disallow="tram rail_urban rail rail_electric rail_fast ship" speed="22.22" length="0.44" shape="856.87,723.23 856.74,723.28 856.66,723.30 856.57,723.32 856.44,723.33"/>
    </edge>
    <edge id=":11779489231_0" function="internal">
        <lane id=":11779489231_0_0" index="0" disallow="tram rail_urban rail rail_electric rail_fast ship" speed="22.22" length="0.30" shape="806.17,725.94 805.87,725.96"/>
    </edge>
    <edge id=":11801997023_0" function="internal">
        <lane id=":11801997023_0_0" index="0" disallow="tram rail_urban rail rail_electric rail_fast ship" speed="27.78" length="0.24" shape="1013.99,392.45 1013.87,392.25"/>
    </edge>
    <edge id=":1191294765_0" function="internal">
        <lane id=":1191294765_0_0" index="0" disallow="tram rail_urban rail rail_electric rail_fast ship" speed="22.22" length="11.91" shape="1196.51,583.79 1193.12,583.77 1190.80,583.84 1188.49,584.06 1185.13,584.53"/>
        <lane id=":1191294765_0_1" index="1" disallow="tram rail_urban rail rail_electric rail_fast ship" speed="22.22" length="11.91" shape="1196.53,580.59 1193.00,580.57 1190.58,580.64 1188.17,580.87 1184.67,581.36"/>
        <lane id=":1191294765_0_2" index="2" disallow="tram rail_urban rail rail_electric rail_fast ship" speed="22.22" length="11.91" shape="1196.55,577.39 1192.87,577.37 1190.35,577.44 1187.85,577.69 1184.20,578.20"/>
    </edge>
    <edge id=":1191294765_3" function="internal">
        <lane id=":1191294765_3_0" index="0" disallow="tram rail_urban rail rail_electric rail_fast ship" speed="8.61" length="1.41" shape="1193.48,574.26 1193.29,575.66"/>
        <lane id=":1191294765_3_1" index="1" disallow="tram rail_urban rail rail_electric rail_fast ship" speed="7.23" length="1.49" shape="1190.28,574.23 1190.08,575.71"/>
        <lane id=":1191294765_3_2" index="2" disallow="tram rail_urban rail rail_electric rail_fast ship" speed="5.51" length="1.81" shape="1187.08,574.19 1186.89,575.79 1186.80,575.97"/>
    </edge>
    <edge id=":1191294765_6" function="internal">
        <lane id=":1191294765_6_0" index="0" disallow="tram rail_urban rail rail_electric rail_fast ship" speed="8.61" length="13.21" shape="1193.29,575.66 1192.92,578.30 1191.34,581.36 1188.75,583.43 1185.13,584.53"/>
    </edge>
    <edge id=":1191294765_7" function="internal">
        <lane id=":1191294765_7_0" index="0" disallow="tram rail_urban rail rail_electric rail_fast ship" speed="7.23" length="8.53" shape="1190.08,575.71 1189.90,577.04 1188.84,579.17 1187.10,580.61 1184.67,581.36"/>
    </edge>
    <edge id=":1191294765_8" function="internal">
        <lane id=":1191294765_8_0" index="0" disallow="tram rail_urban rail rail_electric rail_fast ship" speed="5.51" length="3.63" shape="1186.80,575.97 1186.34,576.99 1185.45,577.79 1184.20,578.20"/>
    </edge>
    <edge id=":1191294803_0" function="internal">
        <lane id=":1191294803_0_0" index="0" disallow="tram rail_urban rail rail_electric rail_fast ship" speed="22.22" length="13.18" shape="1137.75,600.97 1134.38,602.41 1132.12,603.53 1130.01,604.91 1127.09,607.11"/>
        <lane id=":1191294803_0_1" index="1" disallow="tram rail_urban rail rail_electric rail_fast ship" speed="22.22" length="13.18" shape="1136.50,598.02 1132.91,599.56 1130.50,600.76 1128.26,602.22 1125.14,604.58"/>
        <lane id=":1191294803_0_2" index="2" disallow="tram rail_urban rail rail_electric rail_fast ship" speed="22.22" length="13.18" shape="1135.25,595.07 1131.44,596.71 1128.88,597.98 1126.50,599.54 1123.19,602.04"/>
    </edge>
    <edge id=":1191294803_3" function="internal">
        <lane id=":1191294803_3_0" index="0" disallow="tram rail_urban rail rail_electric rail_fast ship" speed="7.49" length="11.59" shape="1135.25,595.07 1131.60,596.26 1128.65,596.45 1126.40,595.62 1124.85,593.79"/>
    </edge>
    <edge id=":1191294803_4" function="internal">
        <lane id=":1191294803_4_0" index="0" disallow="tram rail_urban rail rail_electric rail_fast ship" speed="8.46" length="13.76" shape="1127.69,592.33 1128.95,595.86 1128.95,599.08 1127.67,601.98 1125.14,604.58"/>
        <lane id=":1191294803_4_1" index="1" disallow="tram rail_urban rail rail_electric rail_fast ship" speed="7.82" length="11.63" shape="1127.69,592.33 1128.27,594.62 1127.72,597.00 1126.02,599.47 1123.19,602.04"/>
    </edge>
    <edge id=":1191294803_6" function="internal">
        <lane id=":1191294803_6_0" index="0" disallow="tram rail_urban rail rail_electric rail_fast ship" speed="3.65" length="4.67" shape="1127.69,592.33 1127.53,593.76 1127.00,594.49 1126.11,594.50 1124.85,593.79"/>
    </edge>
    <edge id=":12816056486_0" function="internal">
        <lane id=":12816056486_0_0" index="0" disallow="tram rail_urban rail rail_electric rail_fast ship" speed="6.99" length="9.07" shape="1014.32,403.51 1012.48,404.96 1011.43,406.75 1011.16,408.87 1011.68,411.33"/>
    </edge>
    <edge id=":12816056486_1" function="internal">
        <lane id=":12816056486_1_0" index="0" disallow="tram rail_urban rail rail_electric rail_fast ship" speed="3.65" length="4.67" shape="1014.32,403.51 1012.89,403.42 1012.14,402.92 1012.09,402.03 1012.73,400.74"/>
    </edge>
    <edge id=":12816056486_2" function="internal">
        <lane id=":12816056486_2_0" index="0" disallow="tram rail_urban rail rail_electric rail_fast ship" speed="5.92" length="7.55" shape="1006.34,399.24 1007.51,400.83 1008.97,401.61 1010.71,401.58 1012.73,400.74"/>
    </edge>
    <edge id=":12816056486_3" function="internal">
        <lane id=":12816056486_3_0" index="0" disallow="tram rail_urban rail rail_electric rail_fast ship" speed="27.78" length="13.23" shape="1006.34,399.24 1007.91,402.34 1009.26,405.18 1010.48,408.07 1011.68,411.33"/>
    </edge>
    <edge id=":12816056487_0" function="internal">
        <lane id=":12816056487_0_0" index="0" disallow="tram rail_urban rail rail_electric rail_fast ship" speed="7.32" length="8.96" shape="1022.70,404.75 1020.66,403.27 1018.62,402.55 1016.56,402.60 1014.50,403.41"/>
    </edge>
    <edge id=":12816056487_1" function="internal">
        <lane id=":12816056487_1_0" index="0" disallow="tram rail_urban rail rail_electric rail_fast ship" speed="27.78" length="14.42" shape="1022.70,404.75 1020.17,402.12 1018.03,399.30 1016.13,396.29 1014.33,393.09"/>
    </edge>
    <edge id=":12816056487_2" function="internal">
        <lane id=":12816056487_2_0" index="0" disallow="tram rail_urban rail rail_electric rail_fast ship" speed="6.45" length="8.70" shape="1012.90,400.64 1014.57,399.25 1015.37,397.53 1015.29,395.48 1014.33,393.09"/>
    </edge>
    <edge id=":12816056487_3" function="internal">
        <lane id=":12816056487_3_0" index="0" disallow="tram rail_urban rail rail_electric rail_fast ship" speed="3.65" length="4.67" shape="1012.90,400.64 1014.34,400.73 1015.08,401.22 1015.14,402.12 1014.50,403.41"/>
    </edge>
    <edge id=":1309626464_0" function="internal">
        <lane id=":1309626464_0_0" index="0" disallow="tram rail_urban rail rail_electric rail_fast ship" speed="27.78" length="0.10" shape="1358.63,394.90 1358.63,394.90"/>
    </edge>
    <edge id=":1309626465_0" function="internal">
        <lane id=":1309626465_0_0" index="0" disallow="tram rail_urban rail rail_electric rail_fast ship" speed="27.78" length="0.10" shape="1368.92,395.92 1368.92,395.92"/>
    </edge>
    <edge id=":1309626482_0" function="internal">
        <lane id=":1309626482_0_0" index="0" disallow="tram rail_urban rail rail_electric rail_fast ship" speed="27.78" length="8.84" shape="1372.61,431.42 1370.61,429.75 1369.11,428.78 1367.50,427.95 1365.19,426.70"/>
    </edge>
    <edge id=":1309626482_1" function="internal">
        <lane id=":1309626482_1_0" index="0" disallow="tram rail_urban rail rail_electric rail_fast ship" speed="16.22" length="8.91" shape="1372.61,431.42 1370.77,429.57 1369.77,428.07 1369.07,426.37 1368.13,423.89"/>
    </edge>
    <edge id=":1762944950_0" function="internal">
        <lane id=":1762944950_0_0" index="0" disallow="tram rail_urban rail rail_electric rail_fast ship" speed="22.22" length="0.47" shape="1286.29,789.94 1286.32,789.91 1286.35,789.89 1286.37,789.87 1286.40,789.83"/>
        <lane id=":1762944950_0_1" index="1" disallow="tram rail_urban rail rail_electric rail_fast ship" speed="22.22" length="0.47" shape="1288.44,792.32 1288.54,792.22 1288.61,792.16 1288.67,792.09 1288.77,791.99"/>
        <lane id=":1762944950_0_2" index="2" disallow="tram rail_urban rail rail_electric rail_fast ship" speed="22.22" length="0.47" shape="1290.58,794.69 1290.75,794.54 1290.87,794.43 1290.98,794.31 1291.14,794.14"/>
    </edge>
    <edge id=":1762977414_0" function="internal">
        <lane id=":1762977414_0_0" index="0" disallow="tram rail_urban rail rail_electric rail_fast ship" speed="5.80" length="8.07" shape="1058.12,1031.00 1056.16,1031.24 1054.88,1032.25 1054.28,1034.04 1054.36,1036.61"/>
    </edge>
    <edge id=":1762977414_1" function="internal">
        <lane id=":1762977414_1_0" index="0" disallow="tram rail_urban rail rail_electric rail_fast ship" speed="3.65" length="4.67" shape="1058.12,1031.00 1056.98,1030.13 1056.63,1029.30 1057.08,1028.53 1058.33,1027.81"/>
    </edge>
    <edge id=":1762977414_2" function="internal">
        <lane id=":1762977414_2_0" index="0" disallow="tram rail_urban rail rail_electric rail_fast ship" speed="7.65" length="9.38" shape="1051.34,1022.55 1052.32,1024.71 1053.82,1026.31 1055.82,1027.34 1058.33,1027.81"/>
    </edge>
    <edge id=":1762977414_3" function="internal">
        <lane id=":1762977414_3_0" index="0" disallow="tram rail_urban rail rail_electric rail_fast ship" speed="27.78" length="14.40" shape="1051.34,1022.55 1052.31,1026.07 1053.12,1029.52 1053.79,1033.00 1054.36,1036.61"/>
    </edge>
    <edge id=":1762977534_0" function="internal">
        <lane id=":1762977534_0_0" index="0" disallow="tram rail_urban rail rail_electric rail_fast ship" speed="8.28" length="4.54" shape="912.33,568.52 911.33,569.39 910.76,570.12 910.41,571.01 910.07,572.30"/>
    </edge>
    <edge id=":1762977534_1" function="internal">
        <lane id=":1762977534_1_0" index="0" disallow="tram rail_urban rail rail_electric rail_fast ship" speed="27.78" length="3.45" shape="906.52,568.29 906.44,569.23 906.72,569.89 907.01,570.56 906.97,571.50"/>
        <lane id=":1762977534_1_1" index="1" disallow="tram rail_urban rail rail_electric rail_fast ship" speed="27.78" length="3.45" shape="906.52,568.29 903.88,570.70"/>
    </edge>
    <edge id=":1762977534_3" function="internal">
        <lane id=":1762977534_3_0" index="0" disallow="tram rail_urban rail rail_electric rail_fast ship" speed="7.87" length="4.29" shape="900.53,565.75 901.00,566.91 901.17,567.78 901.08,568.67 900.78,569.89"/>
    </edge>
    <edge id=":1869716862_0" function="internal">
        <lane id=":1869716862_0_0" index="0" disallow="tram rail_urban rail rail_electric rail_fast ship" speed="27.78" length="11.41" shape="1473.25,543.17 1471.44,540.55 1470.06,538.45 1468.75,536.30 1467.16,533.54"/>
    </edge>
    <edge id=":1869716862_1" function="internal">
        <lane id=":1869716862_1_0" index="0" disallow="tram rail_urban rail rail_electric rail_fast ship" speed="6.39" length="9.04" shape="1473.25,543.17 1472.13,540.95 1472.01,538.93 1472.91,537.11 1474.83,535.51"/>
    </edge>
    <edge id=":1869716862_2" function="internal">
        <lane id=":1869716862_2_0" index="0" disallow="tram rail_urban rail rail_electric rail_fast ship" speed="6.35" length="9.04" shape="1464.83,540.97 1466.91,539.58 1467.99,537.88 1468.07,535.87 1467.16,533.54"/>
    </edge>
    <edge id=":1869716862_3" function="internal">
        <lane id=":1869716862_3_0" index="0" disallow="tram rail_urban rail rail_electric rail_fast ship" speed="25.00" length="11.40" shape="1464.83,540.97 1467.69,539.58 1469.92,538.42 1472.11,537.17 1474.83,535.51"/>
    </edge>
    <edge id=":1869716889_0" function="internal">
        <lane id=":1869716889_0_0" index="0" disallow="tram rail_urban rail rail_electric rail_fast ship" speed="22.22" length="10.64" shape="1304.16,643.38 1302.59,640.76 1301.47,639.00 1300.26,637.30 1298.41,634.88"/>
        <lane id=":1869716889_0_1" index="1" disallow="tram rail_urban rail rail_electric rail_fast ship" speed="22.22" length="10.64" shape="1306.91,641.74 1305.28,639.03 1304.12,637.20 1302.86,635.44 1300.95,632.93"/>
        <lane id=":1869716889_0_2" index="2" disallow="tram rail_urban rail rail_electric rail_fast ship" speed="22.22" length="10.64" shape="1309.65,640.09 1307.97,637.29 1306.77,635.40 1305.47,633.58 1303.49,630.98"/>
    </edge>
    <edge id=":1869716889_3" function="internal">
        <lane id=":1869716889_3_0" index="0" disallow="tram rail_urban rail rail_electric rail_fast ship" speed="6.52" length="9.03" shape="1309.65,640.09 1308.70,637.81 1308.69,635.77 1309.65,633.96 1311.56,632.39"/>
    </edge>
    <edge id=":1869716891_0" function="internal">
        <lane id=":1869716891_0_0" index="0" disallow="tram rail_urban rail rail_electric rail_fast ship" speed="22.22" length="12.13" shape="1096.25,640.08 1094.31,642.99 1093.05,645.02 1091.89,647.12 1090.27,650.22"/>
        <lane id=":1869716891_0_1" index="1" disallow="tram rail_urban rail rail_electric rail_fast ship" speed="22.22" length="12.13" shape="1093.59,638.29 1091.60,641.29 1090.30,643.38 1089.11,645.54 1087.44,648.73"/>
        <lane id=":1869716891_0_2" index="2" disallow="tram rail_urban rail rail_electric rail_fast ship" speed="22.22" length="12.13" shape="1090.94,636.51 1088.89,639.59 1087.55,641.74 1086.32,643.96 1084.60,647.25"/>
    </edge>
    <edge id=":1869716891_3" function="internal">
        <lane id=":1869716891_3_0" index="0" disallow="tram rail_urban rail rail_electric rail_fast ship" speed="7.46" length="10.69" shape="1090.94,636.51 1088.50,639.83 1086.39,642.03 1084.62,643.12 1083.18,643.09"/>
        <lane id=":1869716891_3_1" index="1" disallow="tram rail_urban rail rail_electric rail_fast ship" speed="6.55" length="8.03" shape="1090.94,636.51 1089.26,638.63 1087.63,639.96 1086.05,640.47 1084.52,640.19"/>
        <lane id=":1869716891_3_2" index="2" disallow="tram rail_urban rail rail_electric rail_fast ship" speed="5.62" length="5.66" shape="1090.94,636.51 1090.02,637.44 1088.87,637.89 1087.48,637.83 1085.85,637.28"/>
    </edge>
    <edge id=":1869716895_0" function="internal">
        <lane id=":1869716895_0_0" index="0" disallow="tram rail_urban rail rail_electric rail_fast ship" speed="27.78" length="8.70" shape="881.71,710.28 881.79,712.42 882.59,713.80 883.56,715.20 884.12,717.36"/>
        <lane id=":1869716895_0_1" index="1" disallow="tram rail_urban rail rail_electric rail_fast ship" speed="27.78" length="8.70" shape="878.56,709.74 878.60,712.09 879.39,713.64 880.35,715.19 880.93,717.56"/>
        <lane id=":1869716895_0_2" index="2" disallow="tram rail_urban rail rail_electric rail_fast ship" speed="27.78" length="8.70" shape="875.41,709.21 875.42,711.77 876.18,713.47 877.15,715.18 877.74,717.77"/>
        <lane id=":1869716895_0_3" index="3" disallow="tram rail_urban rail rail_electric rail_fast ship" speed="27.78" length="8.70" shape="872.25,708.67 872.23,711.45 872.98,713.30 873.94,715.17 874.54,717.98"/>
    </edge>
    <edge id=":1869716895_4" function="internal">
        <lane id=":1869716895_4_0" index="0" disallow="tram rail_urban rail rail_electric rail_fast ship" speed="12.47" length="8.65" shape="872.25,708.67 871.83,711.20 871.37,712.93 870.51,714.47 868.88,716.40"/>
    </edge>
    <edge id=":1869716906_0" function="internal">
        <lane id=":1869716906_0_0" index="0" disallow="tram rail_urban rail rail_electric rail_fast ship" speed="8.00" length="14.20" shape="1313.93,774.04 1310.72,771.84 1308.98,769.15 1308.73,765.95 1309.94,762.25"/>
        <lane id=":1869716906_0_1" index="1" disallow="tram rail_urban rail rail_electric rail_fast ship" speed="6.50" length="9.03" shape="1315.34,771.18 1313.30,769.78 1312.20,768.06 1312.04,766.03 1312.81,763.67"/>
    </edge>
    <edge id=":1869716906_2" function="internal">
        <lane id=":1869716906_2_0" index="0" disallow="tram rail_urban rail rail_electric rail_fast ship" speed="22.22" length="13.84" shape="1300.43,772.52 1302.60,769.17 1304.01,766.82 1305.30,764.41 1307.08,760.83"/>
        <lane id=":1869716906_2_1" index="1" disallow="tram rail_urban rail rail_electric rail_fast ship" speed="22.22" length="13.84" shape="1303.10,774.27 1305.34,770.82 1306.79,768.41 1308.11,765.93 1309.94,762.25"/>
        <lane id=":1869716906_2_2" index="2" disallow="tram rail_urban rail rail_electric rail_fast ship" speed="22.22" length="13.84" shape="1305.78,776.02 1308.08,772.48 1309.57,770.00 1310.93,767.45 1312.81,763.67"/>
    </edge>
    <edge id=":1869716913_0" function="internal">
        <lane id=":1869716913_0_0" index="0" disallow="tram rail_urban rail rail_electric rail_fast ship" speed="22.22" length="13.50" shape="1091.86,762.68 1093.64,766.06 1094.97,768.33 1096.48,770.47 1098.84,773.48"/>
        <lane id=":1869716913_0_1" index="1" disallow="tram rail_urban rail rail_electric rail_fast ship" speed="22.22" length="13.50" shape="1089.02,764.15 1090.89,767.70 1092.28,770.07 1093.86,772.31 1096.33,775.47"/>
        <lane id=":1869716913_0_2" index="2" disallow="tram rail_urban rail rail_electric rail_fast ship" speed="22.22" length="13.50" shape="1086.19,765.63 1088.14,769.33 1089.58,771.81 1091.24,774.15 1093.81,777.45"/>
    </edge>
    <edge id=":1869716913_3" function="internal">
        <lane id=":1869716913_3_0" index="0" disallow="tram rail_urban rail rail_electric rail_fast ship" speed="7.49" length="11.59" shape="1086.19,765.63 1087.66,769.18 1088.08,772.11 1087.44,774.42 1085.74,776.11"/>
        <lane id=":1869716913_3_1" index="1" disallow="tram rail_urban rail rail_electric rail_fast ship" speed="6.68" length="9.03" shape="1086.19,765.63 1087.00,767.94 1086.92,770.00 1085.94,771.82 1084.06,773.39"/>
    </edge>
    <edge id=":249782331_0" function="internal">
        <lane id=":249782331_0_0" index="0" disallow="tram rail_urban rail rail_electric rail_fast ship" speed="22.22" length="0.10" shape="1398.29,579.64 1398.29,579.64"/>
    </edge>
    <edge id=":249783257_0" function="internal">
        <lane id=":249783257_0_0" index="0" disallow="tram rail_urban rail rail_electric rail_fast ship" speed="8.37" length="12.15" shape="1469.40,863.93 1470.63,861.14 1470.82,858.35 1469.96,855.55 1468.05,852.76"/>
        <lane id=":249783257_0_1" index="1" disallow="tram rail_urban rail rail_electric rail_fast ship" speed="8.68" length="13.05" shape="1469.40,863.93 1471.50,860.03 1472.55,856.72 1472.52,853.98 1471.44,851.82"/>
    </edge>
    <edge id=":249783257_2" function="internal">
        <lane id=":249783257_2_0" index="0" disallow="tram rail_urban rail rail_electric rail_fast ship" speed="27.78" length="13.75" shape="1469.40,863.93 1476.06,852.18"/>
        <lane id=":249783257_2_1" index="1" disallow="tram rail_urban rail rail_electric rail_fast ship" speed="27.78" length="13.75" shape="1472.11,865.63 1478.85,853.75"/>
        <lane id=":249783257_2_2" index="2" disallow="tram rail_urban rail rail_electric rail_fast ship" speed="27.78" length="13.75" shape="1474.82,867.34 1481.64,855.31"/>
        <lane id=":249783257_2_3" index="3" disallow="tram rail_urban rail rail_electric rail_fast ship" speed="27.78" length="13.75" shape="1477.52,869.04 1484.44,856.87"/>
    </edge>
    <edge id=":249783291_0" function="internal">
        <lane id=":249783291_0_0" index="0" disallow="tram rail_urban rail rail_electric rail_fast ship" speed="27.78" length="14.71" shape="1336.06,411.34 1322.54,405.56"/>
    </edge>
    <edge id=":249783291_1" function="internal">
        <lane id=":249783291_1_0" index="0" disallow="tram rail_urban rail rail_electric rail_fast ship" speed="14.31" length="15.01" shape="1337.13,407.66 1333.46,408.17 1329.75,407.85 1326.08,406.90 1322.54,405.56"/>
    </edge>
    <edge id=":249783293_0" function="internal">
        <lane id=":249783293_0_0" index="0" disallow="tram rail_urban rail rail_electric rail_fast ship" speed="6.57" length="9.25" shape="1193.21,382.36 1190.77,382.80 1189.06,383.96 1188.07,385.82 1187.80,388.40"/>
    </edge>
    <edge id=":249783293_1" function="internal">
        <lane id=":249783293_1_0" index="0" disallow="tram rail_urban rail rail_electric rail_fast ship" speed="27.78" length="17.70" shape="1193.21,382.36 1175.54,383.46"/>
    </edge>
    <edge id=":249783293_2" function="internal">
        <lane id=":249783293_2_0" index="0" disallow="tram rail_urban rail rail_electric rail_fast ship" speed="25.00" length="11.60" shape="1185.78,377.00 1186.17,380.41 1186.81,382.70 1187.44,384.99 1187.80,388.40"/>
        <lane id=":249783293_2_1" index="1" disallow="tram rail_urban rail rail_electric rail_fast ship" speed="25.00" length="11.60" shape="1182.59,377.13 1182.97,380.53 1183.61,382.82 1184.24,385.11 1184.61,388.51"/>
        <lane id=":249783293_2_2" index="2" disallow="tram rail_urban rail rail_electric rail_fast ship" speed="25.00" length="11.60" shape="1182.59,377.13 1182.47,380.54 1182.01,382.87 1181.54,385.20 1181.41,388.62"/>
    </edge>
    <edge id=":249783293_5" function="internal">
        <lane id=":249783293_5_0" index="0" disallow="tram rail_urban rail rail_electric rail_fast ship" speed="7.14" length="10.63" shape="1182.59,377.13 1182.23,379.64 1180.94,381.53 1178.71,382.80 1175.54,383.46"/>
    </edge>
    <edge id=":249783302_0" function="internal">
        <lane id=":249783302_0_0" index="0" disallow="tram rail_urban rail rail_electric rail_fast ship" speed="7.33" length="13.40" shape="921.90,556.20 917.47,554.24 914.05,553.65 911.64,554.42 910.24,556.56"/>
    </edge>
    <edge id=":249783302_1" function="internal">
        <lane id=":249783302_1_0" index="0" disallow="tram rail_urban rail rail_electric rail_fast ship" speed="25.00" length="21.27" shape="921.90,556.20 903.19,545.92"/>
        <lane id=":249783302_1_1" index="1" disallow="tram rail_urban rail rail_electric rail_fast ship" speed="25.00" length="21.27" shape="923.41,553.38 904.77,543.14"/>
        <lane id=":249783302_1_2" index="2" disallow="tram rail_urban rail rail_electric rail_fast ship" speed="25.00" length="21.27" shape="924.93,550.57 906.34,540.35"/>
    </edge>
    <edge id=":249783302_4" function="internal">
        <lane id=":249783302_4_0" index="0" disallow="tram rail_urban rail rail_electric rail_fast ship" speed="24.93" length="19.08" shape="923.67,543.23 919.10,547.59 915.13,550.73 912.08,553.45 910.24,556.56"/>
    </edge>
    <edge id=":249783302_5" function="internal">
        <lane id=":249783302_5_0" index="0" disallow="tram rail_urban rail rail_electric rail_fast ship" speed="10.39" length="20.42" shape="921.30,541.07 916.77,545.11 912.24,547.27 907.71,547.54 903.19,545.92"/>
        <lane id=":249783302_5_1" index="1" disallow="tram rail_urban rail rail_electric rail_fast ship" speed="9.27" length="16.08" shape="918.94,538.92 915.29,542.21 911.72,544.01 908.21,544.32 904.77,543.14"/>
        <lane id=":249783302_5_2" index="2" disallow="tram rail_urban rail rail_electric rail_fast ship" speed="7.99" length="11.74" shape="916.57,536.76 913.82,539.31 911.20,540.75 908.71,541.10 906.34,540.35"/>
    </edge>
    <edge id=":249783308_0" function="internal">
        <lane id=":249783308_0_0" index="0" disallow="tram rail_urban rail rail_electric rail_fast ship" speed="7.75" length="13.07" shape="945.85,862.70 942.21,865.42 940.02,868.03 939.28,870.53 939.98,872.93"/>
    </edge>
    <edge id=":249783308_1" function="internal">
        <lane id=":249783308_1_0" index="0" disallow="tram rail_urban rail rail_electric rail_fast ship" speed="23.86" length="21.00" shape="944.14,860.00 938.27,863.44 933.22,865.82 928.83,867.29 924.91,868.00"/>
    </edge>
    <edge id=":249783308_2" function="internal">
        <lane id=":249783308_2_0" index="0" disallow="tram rail_urban rail rail_electric rail_fast ship" speed="27.78" length="15.98" shape="936.83,857.41 938.48,862.21 938.79,866.21 938.90,869.70 939.98,872.93"/>
    </edge>
    <edge id=":249783308_3" function="internal">
        <lane id=":249783308_3_0" index="0" disallow="tram rail_urban rail rail_electric rail_fast ship" speed="5.82" length="9.02" shape="928.29,861.80 929.16,864.28 928.88,866.14 927.46,867.38 924.91,868.00"/>
    </edge>
    <edge id=":249783313_0" function="internal">
        <lane id=":249783313_0_0" index="0" disallow="tram rail_urban rail rail_electric rail_fast ship" speed="27.78" length="15.32" shape="1087.49,1000.14 1091.58,1001.95 1094.43,1003.10 1097.37,1004.00 1101.72,1005.05"/>
        <lane id=":249783313_0_1" index="1" disallow="tram rail_urban rail rail_electric rail_fast ship" speed="27.78" length="15.32" shape="1086.62,1003.25 1090.76,1005.08 1093.64,1006.22 1096.61,1007.11 1101.00,1008.17"/>
        <lane id=":249783313_0_2" index="2" disallow="tram rail_urban rail rail_electric rail_fast ship" speed="27.78" length="15.32" shape="1085.75,1006.36 1089.93,1008.20 1092.84,1009.34 1095.84,1010.23 1100.28,1011.29"/>
        <lane id=":249783313_0_3" index="3" disallow="tram rail_urban rail rail_electric rail_fast ship" speed="27.78" length="15.32" shape="1084.88,1009.48 1089.10,1011.33 1092.05,1012.47 1095.08,1013.34 1099.57,1014.41"/>
    </edge>
    <edge id=":249783313_4" function="internal">
        <lane id=":249783313_4_0" index="0" disallow="tram rail_urban rail rail_electric rail_fast ship" speed="27.78" length="15.95" shape="1084.36,1014.53 1087.82,1013.46 1091.20,1011.95 1095.15,1010.92 1100.28,1011.29"/>
        <lane id=":249783313_4_1" index="1" disallow="tram rail_urban rail rail_electric rail_fast ship" speed="27.66" length="15.95" shape="1084.36,1014.53 1087.78,1013.97 1091.04,1013.56 1094.76,1013.60 1099.57,1014.41"/>
    </edge>
    <edge id=":249783316_0" function="internal">
        <lane id=":249783316_0_0" index="0" disallow="tram rail_urban rail rail_electric rail_fast ship" speed="6.16" length="8.98" shape="1202.33,1023.64 1204.79,1023.59 1206.53,1022.71 1207.53,1020.98 1207.80,1018.42"/>
        <lane id=":249783316_0_1" index="1" disallow="tram rail_urban rail rail_electric rail_fast ship" speed="7.01" length="11.95" shape="1202.33,1023.64 1206.20,1023.74 1208.93,1022.89 1210.53,1021.08 1211.00,1018.32"/>
        <lane id=":249783316_0_2" index="2" disallow="tram rail_urban rail rail_electric rail_fast ship" speed="7.79" length="15.05" shape="1202.33,1023.64 1207.60,1023.89 1211.34,1023.07 1213.54,1021.18 1214.19,1018.21"/>
    </edge>
    <edge id=":249783316_3" function="internal">
        <lane id=":249783316_3_0" index="0" disallow="tram rail_urban rail rail_electric rail_fast ship" speed="27.78" length="17.91" shape="1202.33,1023.64 1207.53,1024.26 1211.13,1024.42 1214.73,1024.14 1219.93,1023.44"/>
        <lane id=":249783316_3_1" index="1" disallow="tram rail_urban rail rail_electric rail_fast ship" speed="27.78" length="17.91" shape="1202.27,1026.86 1207.52,1027.48 1211.14,1027.65 1214.77,1027.37 1220.01,1026.66"/>
        <lane id=":249783316_3_2" index="2" disallow="tram rail_urban rail rail_electric rail_fast ship" speed="27.78" length="17.91" shape="1202.21,1030.08 1207.50,1030.71 1211.15,1030.87 1214.81,1030.59 1220.09,1029.88"/>
        <lane id=":249783316_3_3" index="3" disallow="tram rail_urban rail rail_electric rail_fast ship" speed="27.78" length="17.91" shape="1202.15,1033.30 1207.48,1033.93 1211.16,1034.10 1214.85,1033.82 1220.17,1033.10"/>
    </edge>
    <edge id=":267198388_0" function="internal">
        <lane id=":267198388_0_0" index="0" disallow="tram rail_urban rail rail_electric rail_fast ship" speed="27.78" length="12.32" shape="1058.97,415.42 1047.42,419.69"/>
    </edge>
    <edge id=":267198388_1" function="internal">
        <lane id=":267198388_1_0" index="0" disallow="tram rail_urban rail rail_electric rail_fast ship" speed="17.38" length="12.40" shape="1058.97,415.42 1055.83,416.40 1053.01,416.58 1050.12,416.32 1046.76,415.95"/>
    </edge>
    <edge id=":267198394_0" function="internal">
        <lane id=":267198394_0_0" index="0" disallow="tram rail_urban rail rail_electric rail_fast ship" speed="8.35" length="1.66" shape="1201.22,836.53 1201.31,834.87"/>
        <lane id=":267198394_0_1" index="1" disallow="tram rail_urban rail rail_electric rail_fast ship" speed="6.92" length="1.30" shape="1204.41,836.27 1204.48,834.97"/>